src/test/resources/hvdc_alignment/dk_outage.uct
##C 2007.05.01
##N
##ZDK
K1EDR_1  EDR     CS1  0 0        0.00000 0.00000 0.00000 0.00000
##ZNL
NEOS381E EOS380       0 0        0.00000 0.00000 0.00000 0.00000
XXX_EE1N XXX_EE1N     0 0        -106     2       3       4
##ZXX
XXX_EE1D EDR_HVDCCP1  1 0        0       0       0       0
##L
XXX_EE1D K1EDR_1  1 9 0.0000 0.0500 0.000000   9999 C_EDR-P1
NEOS381E XXX_EE1N 1 0 0.0010 0.0500 0.000000 999000 EOS-COBRA380
##T
##R